&atmos_model_nml
    avg_max_length = 3600.0
    blocksize = 28
    ccpp_suite = 'rrfs_gfsv16'
    chksum_debug = .false.
    dycore_only = .false.
    fdiag = 3
/

&cires_ugwp_nml
    knob_ugwp_azdir = 2, 4, 4, 4
    knob_ugwp_doaxyz = 1
    knob_ugwp_doheat = 1
    knob_ugwp_dokdis = 1
    knob_ugwp_effac = 1, 1, 1, 1
    knob_ugwp_ndx4lh = 1
    knob_ugwp_solver = 2
    knob_ugwp_source = 1, 1, 0, 0
    knob_ugwp_stoch = 0, 0, 0, 0
    knob_ugwp_version = 0
    knob_ugwp_wvspec = 1, 25, 25, 25
    launch_level = 25
/

&amip_interp_nml
    data_set = 'reynolds_oi'
    date_out_of_range = 'climo'
    interp_oi_sst = .true.
    no_anom_sst = .false.
    use_ncep_ice = .false.
    use_ncep_sst = .true.
/
&diag_manager_nml
    prepend_date = .false.
/

&external_ic_nml
    checker_tr = .false.
    filtered_terrain = .true.
    gfs_dwinds = .true.
    levp = 65
    nt_checker = 0
/

&fms_io_nml
    checksum_required = .false.
    max_files_r = 100
    max_files_w = 100
/

&fms_nml
    clock_grain = 'ROUTINE'
    domains_stack_size = 3000000
    print_memory_usage = .false.
/

&fv_core_nml
    a_imp = 1.0
    adjust_dry_mass = .false.
    agrid_vel_rst = .true.
    bc_update_interval = 3
    beta = 0.0
    consv_am = .false.
    consv_te = 0.0
    d2_bg = 0.0
    d2_bg_k1 = 0.2
    d2_bg_k2 = 0.04
    d4_bg = 0.15
    d_con = 1.0
    d_ext = 0.0
    dddmp = 0.1
    delt_max = 0.008
    dnats = 1
    external_ic = .true.
    fill = .true.
    fv_debug = .false.
    fv_sg_adj = 300
    gfs_phil = .false.
    hord_dp = 6
    hord_mt = 6
    hord_tm = 6
    hydrostatic = .false.
    io_layout = 1, 1
    k_split = 3
    ke_bg = 0.0
    kord_mt = 9
    kord_tm = -9
    do_sat_adj = .true.
    do_schmidt = .true.
    do_vort_damp = .true.
    dwind_2d = .false.
    external_eta = .true.
    kord_tr = 9
    kord_wz = 9
    layout = 36, 18
    make_nh = .true.
    mountain = .false.
    n_split = 4
    hord_vt = 6
    ncep_ic = .false.
    nggps_ic = .true.
    no_dycore = .false.
    nord = 2
    npx = 3641
    stretch_fac = 0.999
    target_lat = 51.5
    target_lon = -107.5
    tau = 5.0
    use_hydro_pressure = .false.
    vtdm4 = 0.075
    warm_start = .false.
    npy = 2521
    npz = 64
    nrows_blend = 10
    ntiles = 1
    nudge_qv = .false.
    nwat = 6
    p_fac = 0.1
    n_sponge = 9
    n_zs_filter = 0
    na_init = 1
    hord_tr = 10
    phys_hydrostatic = .false.
    print_freq = 6
    range_warn = .true.
    read_increment = .false.
    regional = .true.
    res_latlon_dynamics = 'fv3_increment.nc'
    reset_eta = .false.
    rf_cutoff = 2000.0
    rf_fast = .false.
    sg_cutoff = 10000.0
    write_restart_with_bcs = .false.
    z_tracer = .true.
/

&fv_grid_nml
    grid_file = 'INPUT/grid_spec.nc'
/

&gfdl_cloud_microphysics_nml
    c_cracw = 0.8
    c_paut = 0.5
    c_pgacs = 0.01
    c_psaci = 0.05
    ccn_l = 300.0
    ccn_o = 100.0
    const_vg = .false.
    const_vi = .false.
    const_vr = .false.
    const_vs = .false.
    de_ice = .false.
    do_qa = .true.
    do_sedi_heat = .false.
    dw_land = 0.16
    dw_ocean = 0.1
    fast_sat_adj = .true.
    fix_negative = .true.
    icloud_f = 1
    mono_prof = .true.
    mp_time = 150.0
    prog_ccn = .false.
    qi0_crt = 8e-05
    qi_lim = 1.0
    ql_gen = 0.001
    ql_mlt = 0.001
    qs0_crt = 0.001
    rad_graupel = .true.
    rad_rain = .true.
    rad_snow = .true.
    reiflag = 2
    rh_inc = 0.3
    rh_inr = 0.3
    rh_ins = 0.3
    rthresh = 1e-05
    sedi_transport = .true.
    tau_g2v = 900.0
    tau_i2s = 1000.0
    tau_l2v = 225.0
    tau_v2l = 150.0
    use_ccn = .true.
    use_ppm = .false.
    vg_max = 12.0
    vi_max = 1.0
    vr_max = 12.0
    vs_max = 2.0
    z_slope_ice = .true.
    z_slope_liq = .true.
/

&gfs_physics_nml
    avg_max_length = 3600.0
    cal_pre = .false.
    cdmbgwd = 0.88, 0.04
    cnvcld = .false.
    cnvgwd = .false.
    cplflx = .false.
    debug = .false.
    do_deep = .false.
    do_mynnedmf = .false.
    do_mynnsfclay = .false.
    do_shum = .false.
    do_skeb = .false.
    do_sppt = .false.
    do_tofd = .false.
    do_ugwp = .false.
    dspheat = .true.
    effr_in = .true.
    fhcyc = 0.0
    fhlwr = 900.0
    fhswr = 900.0
    fhzero = 1.0
    h2o_phys = .true.
    hybedmf = .false.
    iaer = 5111
    ialb = 1
    iau_delthrs = 6
    iau_inc_files = ''
    iaufhrs = 30
    icliq_sw = 2
    icloud_bl = 1
    ico2 = 2
    iems = 1
    imfdeepcnv = 2
    imfshalcnv = 2
    imp_physics = 11
    iopt_alb = 2
    iopt_btr = 1
    iopt_crs = 1
    iopt_dveg = 2
    iopt_frz = 1
    iopt_inf = 1
    iopt_rad = 1
    iopt_run = 1
    iopt_sfc = 1
    iopt_snf = 4
    iopt_stc = 1
    iopt_tbot = 2
    iovr = 3
    isatmedmf = 1
    isol = 2
    isot = 1
    isubc_lw = 2
    isubc_sw = 2
    ivegsrc = 1
    ldiag3d = .false.
    ldiag_ugwp = .false.
    lgfdlmprad = .true.
    lheatstrg = .false.
    lndp_type = 0
    lradar = .true.
    lsm = 1
    ltaerosol = .false.
    lwhtr = .true.
    n_var_lndp = 0
    ncld = 5
    nsradar_reset = 3600
    nst_anl = .true.
    nstf_name = 0, 0, 0, 0, 0
    oz_phys = .false.
    oz_phys_2015 = .true.
    pdfcld = .false.
    pre_rad = .false.
    prslrd0 = 0.0
    random_clds = .false.
    redrag = .true.
    satmedmf = .true.
    shal_cnv = .false.
    swhtr = .true.
    trans_trac = .true.
    ttendlim = -999
    use_ufo = .true.
    xkzm_h = 1.0
    xkzm_m = 1.0
    xkzminv = 0.3
/

&interpolator_nml
    interp_method = 'conserve_great_circle'
/

&nam_sfcperts
    iseed_lndp = 2010
    lndp_lscale = 500000
    lndp_prt_list = 0.2, 0.1
    lndp_tau = 21600
    lndp_type = 0
    lndp_var_list = 'smc', 'vgf'
/

&nam_stochy
    iseed_shum = 2021022400012
    iseed_skeb = 2021022400013
    iseed_sppt = 2021022400011
    new_lscale = .true.
    shum = -999.0
    shum_lscale = 150000
    shum_tau = 21600
    shumint = 3600
    skeb = -999.0
    skeb_lscale = 150000
    skeb_tau = 21600
    skeb_vdof = 10
    skebint = 3600
    skebnorm = 1
    sppt = -999.0
    sppt_logit = .true.
    sppt_lscale = 150000
    sppt_sfclimit = .false.
    sppt_tau = 21600
    spptint = 3600
    use_zmtnblck = .false.
/

&namsfc
    fabsl = 99999
    faisl = 99999
    faiss = 99999
    fnabsc = '/scratch2/BMC/wrfruc/cholt/rrfs_hwt_ens/fix_lam/C3445.maximum_snow_albedo.tileX.nc'
    fnacna = ''
    fnaisc = '/scratch2/BMC/wrfruc/cholt/rrfs_hwt_ens/fix_am/CFSR.SEAICE.1982.2012.monthly.clim.grb'
    fnalbc = '/scratch2/BMC/wrfruc/cholt/rrfs_hwt_ens/fix_lam/C3445.snowfree_albedo.tileX.nc'
    fnalbc2 = '/scratch2/BMC/wrfruc/cholt/rrfs_hwt_ens/fix_lam/C3445.facsf.tileX.nc'
    fnglac = '/scratch2/BMC/wrfruc/cholt/rrfs_hwt_ens/fix_am/global_glacier.2x2.grb'
    fnmskh = '/scratch2/BMC/wrfruc/cholt/rrfs_hwt_ens/fix_am/seaice_newland.grb'
    fnmxic = '/scratch2/BMC/wrfruc/cholt/rrfs_hwt_ens/fix_am/global_maxice.2x2.grb'
    fnslpc = '/scratch2/BMC/wrfruc/cholt/rrfs_hwt_ens/fix_lam/C3445.slope_type.tileX.nc'
    fnsmcc = '/scratch2/BMC/wrfruc/cholt/rrfs_hwt_ens/fix_am/global_soilmgldas.t126.384.190.grb'
    fnsnoa = ''
    fnsnoc = '/scratch2/BMC/wrfruc/cholt/rrfs_hwt_ens/fix_am/global_snoclim.1.875.grb'
    fnsotc = '/scratch2/BMC/wrfruc/cholt/rrfs_hwt_ens/fix_lam/C3445.soil_type.tileX.nc'
    fntg3c = '/scratch2/BMC/wrfruc/cholt/rrfs_hwt_ens/fix_lam/C3445.substrate_temperature.tileX.nc'
    fntsfa = ''
    fntsfc = '/scratch2/BMC/wrfruc/cholt/rrfs_hwt_ens/fix_am/RTGSST.1982.2012.monthly.clim.grb'
    fnvegc = '/scratch2/BMC/wrfruc/cholt/rrfs_hwt_ens/fix_lam/C3445.vegetation_greenness.tileX.nc'
    fnvetc = '/scratch2/BMC/wrfruc/cholt/rrfs_hwt_ens/fix_lam/C3445.vegetation_type.tileX.nc'
    fnvmnc = '/scratch2/BMC/wrfruc/cholt/rrfs_hwt_ens/fix_lam/C3445.vegetation_greenness.tileX.nc'
    fnvmxc = '/scratch2/BMC/wrfruc/cholt/rrfs_hwt_ens/fix_lam/C3445.vegetation_greenness.tileX.nc'
    fnzorc = 'igbp'
    fsicl = 99999
    fsics = 99999
    fslpl = 99999
    fsmcl = 99999, 99999, 99999
    fsnol = 99999
    fsnos = 99999
    fsotl = 99999
    ftsfl = 99999
    ftsfs = 90
    fvetl = 99999
    fvmnl = 99999
    fvmxl = 99999
    ldebug = .true.
/

&surf_map_nml
    cd2 = -1
    cd4 = 0.12
    max_slope = 0.4
    n_del2_strong = 0
    n_del2_weak = 2
    n_del4 = 1
    peak_fac = 1.0
    zero_ocean = .false.
/
